%%%%%%%%%%%%%%%%%%%%%%%%%%%%%%%%%%%%%%%%%%%%%%%%%%%%%%%%%%%%%%%%%%%%%%%%%%%%%%%%
%                                                                              %
% SU2 configuration file                                                       %
% Case description: Steady incompressible laminar flow around heated cylinders %
%                                                                              %
%%%%%%%%%%%%%%%%%%%%%%%%%%%%%%%%%%%%%%%%%%%%%%%%%%%%%%%%%%%%%%%%%%%%%%%%%%%%%%%%

% ------------- DIRECT, ADJOINT, AND LINEARIZED PROBLEM DEFINITION ------------%
%                      
SOLVER= INC_RANS
KIND_TURB_MODEL= SST
SST_OPTIONS= V2003m
RESTART_SOL= NO
OBJECTIVE_FUNCTION= TOTAL_HEATFLUX
OBJECTIVE_WEIGHT = 1.0
READ_BINARY_RESTART = YES
HISTORY_OUTPUT=(ITER, RMS_RES, HEAT )
%
% -------------------- BOUNDARY CONDITION DEFINITION --------------------------%
%
MARKER_PLOTTING= (inflow, Blade)
INC_INLET_TYPE= VELOCITY_INLET
INC_OUTLET_TYPE= PRESSURE_OUTLET
MARKER_ISOTHERMAL= ( Blade, 300.0)
MARKER_PERIODIC=   ( periodic1, periodic2, 0.0, 0.0, 0.0, 0.0, 0.0, 0.0, 0.0, -2.0, 0.0)
MARKER_INLET= ( inflow, 288.15, 0.2157, 1.0, 0.0, 0.0 )
MARKER_INLET_TURBULENT= (inflow, 0.10, 100.0)
%MARKER_WALL_FUNCTIONS= (Blade, STANDARD_WALL_FUNCTION)
WALLMODEL_KAPPA= 0.41
WALLMODEL_B= 5.5
WALLMODEL_MINYPLUS= 1.0
WALLMODEL_MAXITER= 200
WALLMODEL_RELFAC= 0.5
MARKER_OUTLET= ( outflow, 0.0 ) 
%
% ---------------- INCOMPRESSIBLE FLOW CONDITION DEFINITION -------------------%
%
INC_DENSITY_MODEL= CONSTANT
INC_NONDIM= DIMENSIONAL
INC_DENSITY_INIT= 1.2886
INC_ENERGY_EQUATION = YES
INC_VELOCITY_INIT= ( 0.2, 0.0, 0.0 )
INC_TEMPERATURE_INIT= 288.15
%
% ---- IDEAL GAS, POLYTROPIC, VAN DER WAALS AND PENG ROBINSON CONSTANTS -------%
%
FLUID_MODEL= INC_IDEAL_GAS
SPECIFIC_HEAT_CP= 1004.703
MOLECULAR_WEIGHT= 28.96
%
% --------------------------- VISCOSITY MODEL ---------------------------------%
%
VISCOSITY_MODEL= CONSTANT_VISCOSITY
MU_CONSTANT= 0.00027795102
MU_REF= 1.716E-5
MU_T_REF= 273.15
SUTHERLAND_CONSTANT= 110.4
%
% --------------------------- THERMAL CONDUCTIVITY MODEL ----------------------%
%
CONDUCTIVITY_MODEL= CONSTANT_PRANDTL
THERMAL_CONDUCTIVITY_CONSTANT= 0.0257
PRANDTL_LAM= 0.72
PRANDTL_TURB= 0.90
%
% ------------- COMMON PARAMETERS DEFINING THE NUMERICAL METHOD ---------------%
%
NUM_METHOD_GRAD= GREEN_GAUSS
CFL_NUMBER= 10.0
CFL_ADAPT= NO
CFL_ADAPT_PARAM= ( 0.4, 1.0, 5.0, 1000.0 )
RK_ALPHA_COEFF= ( 0.66667, 0.66667, 1.000000 )

% ------------------------ LINEAR SOLVER DEFINITION ---------------------------%
%
LINEAR_SOLVER= FGMRES
LINEAR_SOLVER_PREC= ILU
LINEAR_SOLVER_ILU_FILL_IN= 0
LINEAR_SOLVER_ERROR= 1E-13
LINEAR_SOLVER_ITER= 10
%
% -------------------- FLOW NUMERICAL METHOD DEFINITION -----------------------%
%
CONV_NUM_METHOD_FLOW= FDS
MUSCL_FLOW= YES
JST_SENSOR_COEFF= (0.4, 0.1)
TIME_DISCRE_FLOW= EULER_IMPLICIT
%
% -------------------- TURBULENT NUMERICAL METHOD DEFINITION ------------------%
%
CONV_NUM_METHOD_TURB= SCALAR_UPWIND
TIME_DISCRE_TURB= EULER_IMPLICIT
CFL_REDUCTION_TURB= 0.1
%
% --------------------------- CONVERGENCE PARAMETERS --------------------------%
%
CONV_FIELD= RMS_PRESSURE, RMS_TEMPERATURE % TK was RES_PRESSURE which is not a history but a volume output
CONV_STARTITER= 4
CONV_RESIDUAL_MINVAL= -9
CONV_FILENAME= history
%
% -------------------------- MULTIGRID PARAMETERS -----------------------------%
%
MGLEVEL= 2
MGCYCLE= W_CYCLE
MG_PRE_SMOOTH= ( 1, 2, 3, 3 )
MG_POST_SMOOTH= ( 0, 0, 0, 0 )
MG_CORRECTION_SMOOTH= ( 0, 0, 0, 0 )
MG_DAMP_RESTRICTION= 0.3
MG_DAMP_PROLONGATION= 0.6
% ------------------------- INPUT/OUTPUT INFORMATION --------------------------%
%
SOLUTION_FILENAME= solution_flow.dat

SOLUTION_ADJ_FILENAME= solution_adj.dat
TABULAR_FORMAT= TECPLOT
BREAKDOWN_FILENAME= forces_breakdown.dat
RESTART_FILENAME= restart_flow.dat
RESTART_ADJ_FILENAME= restart_adj.dat
VOLUME_FILENAME= flow
VOLUME_ADJ_FILENAME= adjoint
VALUE_OBJFUNC_FILENAME= of_eval.dat
GRAD_OBJFUNC_FILENAME= of_grad.dat
SURFACE_FILENAME= surface_flow
SURFACE_ADJ_FILENAME= surface_adjoint
OUTPUT_FILES= (PARAVIEW_ASCII, SURFACE_TECPLOT_ASCII, RESTART)
%
% ------------------------ GRID DEFORMATION PARAMETERS ------------------------%
%
DEFORM_LINEAR_SOLVER= FGMRES
DEFORM_LINEAR_SOLVER_ITER= 200
DEFORM_NONLINEAR_ITER= 1
DEFORM_CONSOLE_OUTPUT= YES
DEFORM_STIFFNESS_TYPE= INVERSE_VOLUME
INNER_ITER= 40000
%
% ------------------------ MESH ------------------------%
%
MESH_FILENAME= rotor_domain.su2
MESH_FORMAT= SU2
OUTPUT_WRT_FREQ= 100
